2018.2/Mateus Jonathan dos Santos Tavares/Arquivos DSS/Trechos01I8.dss
New line.EL_1189175 phases=3 bus1=COMT_AGF01I8 bus2=PA_D_AGF01I9 length=0.27 units=km linecode=CCN_95
New line.EL_168720729 phases=3 bus1=PA_D_AGF01I9 bus2=BVIRT_SG69E3048 length=0.21 units=km linecode=CCN_95
New line.D_F34E0303|D_G69E306 phases=3 bus1=PA_D_G69E3066 bus2=PA_D_F34E0303 length=1.9 units=km linecode=CCN_95
New line.SG69E3048|D_G69E3066 phases=3 bus1=DMUM_SG69E3048 bus2=PA_D_G69E3066 length=0.27 units=km linecode=CCN_95
New line.EL_212350 phases=3 bus1=PA_D_F34E0303 bus2=CD_69E3345 length=1.02 units=km linecode=CCN_95
New line.69E3345|SG69E3379 phases=3 bus1=CD_69E3345 bus2=BVIRT_SG69E3379 length=0.33 units=km linecode=CCN_95
New line.D_G67E1832|SH94E1085 phases=3 bus1=PA_D_G67E1832 bus2=DMUM_SH94E1085 length=1.24 units=km linecode=CCN_95
New line.67E1818|D_G67E1832 phases=3 bus1=CD_67E1818 bus2=PA_D_G67E1832 length=0.35 units=km linecode=CCN_95
New line.D_SG67E1614|67E1818 phases=3 bus1=PA_D_SG67E1614 bus2=CD_67E1818 length=1.62 units=km linecode=CCN_95
New line.D_SG67E1614|SG67E161 phases=3 bus1=PA_D_SG67E1614 bus2=DMUM_SG67E1614 length=0.42 units=km linecode=CCN_95
New line.D_SG67E1614|SG69E337 phases=3 bus1=DMUM_SG69E3379 bus2=PA_D_SG67E1614 length=2.96 units=km linecode=CCN_95
New line.67E1256|D_F35E2448 phases=3 bus1=CD_67E1256 bus2=PA_D_F35E2448 length=0.46 units=km linecode=CCN_95
New line.SG67E1614|67E1256 phases=3 bus1=BVIRT_SG67E1614 bus2=CD_67E1256 length=0.85 units=km linecode=CCN_95
New line.EL_146618637 phases=3 bus1=PA_D_F35E2448 bus2=DMUM_SF35E2302 length=1.36 units=km linecode=CCN_95
New line.EL_215442 phases=3 bus1=PA_D_FI10E1543 bus2=DMUM_FI10E1543 length=0.01 units=km linecode=CCN_25
New line.D_FI10E1543|D_TI10E1 phases=3 bus1=PA_D_TI10E1424 bus2=PA_D_FI10E1543 length=0.79 units=km linecode=CCN_95
New line.D_FI10E1543|D_FI10E1 phases=3 bus1=PA_D_FI10E1543 bus2=PA_D_FI10E1733 length=1.93 units=km linecode=CCN_95
New line.D_TI10E1424|SH94E108 phases=3 bus1=BVIRT_SH94E1085 bus2=PA_D_TI10E1424 length=0.03 units=km linecode=CCN_95
New line.EL_212508 phases=3 bus1=PA_D_TI10E1424 bus2=CD_10E1424 length=0.57 units=km linecode=CCN_25
New line.EL_57345729 phases=3 bus1=PA_D_FI10E1733 bus2=BVIRT_FI10E1733 length=0.01 units=km linecode=CCN_25
New line.D_FI10E1733|D_I10E17 phases=3 bus1=PA_D_FI10E1733 bus2=PA_D_I10E1771 length=0.34 units=km linecode=CCN_95
New line.D_I10E1771|D_FP56E19 phases=3 bus1=PA_D_I10E1771 bus2=PA_D_FP56E1960 length=0.7 units=km linecode=CCN_95
New line.EL_212676 phases=3 bus1=PA_D_FP56E1960 bus2=DMUM_FP56E1960 length=0.43 units=km linecode=CCN_4AWG
New line.D_FP56E1960|10E1882 phases=3 bus1=PA_D_FP56E1960 bus2=CD_10E1882 length=0.42 units=km linecode=CCN_95
New line.D_FI10E2019|10E1882 phases=3 bus1=CD_10E1882 bus2=PA_D_FI10E2019 length=1.34 units=km linecode=CCN_95
New line.EL_150975480 phases=3 bus1=PA_D_FI10E2019 bus2=BVIRT_SI10E2122 length=0.97 units=km linecode=CCN_25
New line.D_FI10E2019|SG79E196 phases=3 bus1=PA_D_FI10E2019 bus2=BVIRT_SG79E1964 length=0.12 units=km linecode=CCN_95
New line.EL_122117123 phases=3 bus1=PA_D_FI10E2019 bus2=BVIRT_FI10E2019 length=0.01 units=km linecode=CCN_25
New line.EL_212238890 phases=3 bus1=CD_53L0648 bus2=PA_EL_3423002 length=0.35 units=km linecode=CCN_25
New line.EL_212238874 phases=3 bus1=PA_E_-10923944 bus2=CD_53L0648 length=0.32 units=km linecode=CCN_25
New line.EL_212238863 phases=3 bus1=PA_E_-10923940 bus2=PA_E_-10923944 length=0.31 units=km linecode=CCN_25
New line.EL_212238914 phases=3 bus1=PA_D_TU52E0575 bus2=PA_E_-10923940 length=0.43 units=km linecode=CCN_25
New line.EL_212604 phases=3 bus1=PA_E_-10923940 bus2=DMUM_SI10E2529 length=0.79 units=km linecode=CCN_25
New line.EL_150975536 phases=3 bus1=PA_D_FT16E3880 bus2=PA_D_TU52E0575 length=1.98 units=km linecode=CCN_25
New line.EL_215342 phases=3 bus1=PA_D_TU52E0575 bus2=CD_52E0575 length=1.15 units=km linecode=CCN_25
New line.EL_203058980 phases=3 bus1=PA_D_FT16E3880 bus2=BVIRT_FI10E2217 length=0.01 units=km linecode=CCN_25
New line.EL_212578 phases=3 bus1=CD_10E2171 bus2=PA_D_FT16E3880 length=0.45 units=km linecode=CCN_25
New line.52E0575|EL_1210840 phases=3 bus1=CD_52E0575 bus2=PA_EL_1210840 length=0.29 units=km linecode=CCN_25
New line.EL_212564 phases=3 bus1=DMUM_SI10E2122 bus2=CD_10E2171 length=0.51 units=km linecode=CCN_25
New line.EL_58455964 phases=3 bus1=BVIRT_FI10E1543 bus2=PA_D_P67E4702 length=1.22 units=km linecode=CCN_25
New line.D_P67E4702|D_TH17E16 phases=3 bus1=PA_D_P67E4702 bus2=PA_D_TH17E1650 length=0.23 units=km linecode=CCN_25
New line.EL_212640 phases=3 bus1=PA_D_TH17E1650 bus2=DMUM_FP67E4797 length=0.63 units=km linecode=CCN_25
New line.EL_58832623 phases=3 bus1=PA_D_TH17E1650 bus2=CD_17E1650 length=0.47 units=km linecode=CCN_25
New line.D_J16E2178|16E2239 phases=3 bus1=PA_D_J16E2178 bus2=CD_16E2239 length=0.61 units=km linecode=CCN_25
New line.FI10E1733|D_J16E2178 phases=3 bus1=DMUM_FI10E1733 bus2=PA_D_J16E2178 length=1.36 units=km linecode=CCN_25
New line.FI10E2019|D_G79E302 phases=3 bus1=DMUM_FI10E2019 bus2=PA_D_G79E302 length=0.03 units=km linecode=CCN_25
New line.EL_213680 phases=3 bus1=PA_D_G79E302 bus2=CD_79E1842 length=1 units=km linecode=CCN_25
New line.EL_212764 phases=3 bus1=DMUM_SG79E1964 bus2=DMUM_SG79E1991 length=0.26 units=km linecode=CCN_4/0_AWG
New line.D_TF77L6472|FP56E196 phases=3 bus1=BVIRT_FP56E1960 bus2=PA_D_TF77L6472 length=2.35 units=km linecode=CCN_4AWG
New line.D_TF77L6472|M_TG97E1 phases=3 bus1=PA_D_TF77L6472 bus2=PA_M_TG97E1586 length=0.41 units=km linecode=CCN_25
New line.EL_212698 phases=3 bus1=PA_D_TF77L6472 bus2=DMUM_FP56E1680 length=0.38 units=km linecode=CCN_25
New line.EL_212730 phases=3 bus1=PA_D_TF77L6472 bus2=CD_77L6472 length=0.77 units=km linecode=CCN_25
New line.M_TG97E1586|D_FP79E1 phases=3 bus1=PA_M_TG97E1586 bus2=PA_D_FP79E1262 length=0.41 units=km linecode=CCN_25
New line.D_FP79E1262|D_P79E12 phases=3 bus1=PA_D_FP79E1262 bus2=PA_D_P79E1247 length=0.21 units=km linecode=CCN_25
New line.EL_212746 phases=3 bus1=PA_D_FP79E1262 bus2=CD_97E1586 length=1.85 units=km linecode=CCN_25
New line.D_P79E1247|FP79E1262 phases=3 bus1=PA_D_P79E1247 bus2=BVIRT_FP79E1262 length=0.15 units=km linecode=CCN_25
New line.EL_1723177 phases=3 bus1=PA_D_FE50L1035 bus2=DMUM_FE50L1035 length=0.01 units=km linecode=CCN_25
New line.EL_1723170 phases=3 bus1=PA_D_FE50L1035 bus2=PA_D_G67E1843 length=0.79 units=km linecode=CCN_95
New line.EL_212616 phases=3 bus1=PA_D_I10E2569 bus2=PA_D_FE50L1035 length=0.36 units=km linecode=CCN_95
New line.EL_153961796 phases=3 bus1=PA_D_G67E1843 bus2=PA_D_G67E1985 length=1.28 units=km linecode=CCN_95
New line.EL_172271333 phases=3 bus1=BVIRT_SI10E2529 bus2=PA_D_I10E2569 length=0.33 units=km linecode=CCN_95
New line.EL_160821971 phases=3 bus1=PA_D_G67E1985 bus2=CD_67E1996 length=0.2 units=km linecode=CCN_95
New line.EL_153961802 phases=3 bus1=CD_67E1996 bus2=PA_D_G67E2059 length=0.39 units=km linecode=CCN_95
New line.D_G67E2059|D_L97L107 phases=3 bus1=PA_D_G67E2059 bus2=PA_D_L97L1074 length=0.7 units=km linecode=CCN_25
New line.D_G67E2059|67E2182 phases=3 bus1=PA_D_G67E2059 bus2=CD_67E2182 length=1.49 units=km linecode=CCN_25
New line.D_L97L1074|D_L97L105 phases=3 bus1=PA_D_L97L1074 bus2=PA_D_L97L1057 length=0.15 units=km linecode=CCN_25
New line.67E2182|EL_3103255 phases=3 bus1=CD_67E2182 bus2=PA_EL_3103255 length=1 units=km linecode=CCN_25
New line.EL_150975546 phases=3 bus1=DMUM_FI10E2217 bus2=BVIRT_FT16E3880 length=0.36 units=km linecode=CCN_25
New line.53E1556|EL_2237003 phases=3 bus1=CD_53E1556 bus2=PA_EL_2237003 length=0.14 units=km linecode=CCN_25
New line.EL_58832695 phases=3 bus1=PA_D_D_TU53E1556 bus2=CD_53E1556 length=0.4 units=km linecode=CCN_25
New line.EL_208559593 phases=3 bus1=PA_D_D_TU53E1556 bus2=CD_67E4907 length=0.24 units=km linecode=CCN_25
New line.EL_58832684 phases=3 bus1=BVIRT_FP67E4797 bus2=PA_D_D_TU53E1556 length=0.97 units=km linecode=CCN_25
New line.EL_64334188 phases=3 bus1=CD_67E4907 bus2=CD_67E4936 length=0.24 units=km linecode=CCN_25
New line.67E4936|D_R02E2182 phases=3 bus1=CD_67E4936 bus2=BVIRT_D_R02E2182 length=0.66 units=km linecode=CCN_25
New line.EL_216607514 phases=3 bus1=PA_D_SG79E2017 bus2=DMUM_SG79E2017 length=0.02 units=km linecode=CCN_95
New line.EL_228788768 phases=3 bus1=PA_D_SG79E2017 bus2=BVIRT_6G79E2017 length=0.02 units=km linecode=CCN_95
New line.EL_228788787 phases=3 bus1=BVIRT_SG79E1991 bus2=PA_D_SG79E2017 length=0.3 units=km linecode=CCN_95
New line.D_T60E0736|56E1417 phases=3 bus1=PA_D_T60E0736 bus2=CD_56E1417 length=0.55 units=km linecode=CCN_25
New line.EL_212704 phases=3 bus1=BVIRT_FP56E1680 bus2=PA_D_T60E0736 length=1.49 units=km linecode=CCN_25
New line.56E1417|EL_1210810 phases=3 bus1=CD_56E1417 bus2=PA_EL_1210810 length=0.36 units=km linecode=CCN_25
New line.EL_147607482 phases=3 bus1=DMUM_FP79E1262 bus2=CD_79E1262 length=0.04 units=km linecode=CCN_25
New line.EL_1723186 phases=3 bus1=BVIRT_FE50L1035 bus2=CD_67L1096 length=0.94 units=km linecode=CCN_25
New line.EL_212584 phases=3 bus1=DMUM_FT16E3880 bus2=CD_16E3880 length=0.13 units=km linecode=CCN_25
New line.D_R02E2182|02E2234 phases=3 bus1=PA_D_R02E2182 bus2=CD_02E2234 length=0.48 units=km linecode=CCN_25
New line.02E2234|186464100 phases=3 bus1=CD_02E2234 bus2=PA_186464100 length=0.18 units=km linecode=CCN_25
New line.EL_64334216 phases=3 bus1=PA_186464100 bus2=PA_EL_2259449 length=0.19 units=km linecode=CCN_25
New line.EL_228788756 phases=3 bus1=PA_D_6G79E2017 bus2=DMUM_6G79E2017 length=0.02 units=km linecode=CCN_95
New line.EL_228788743 phases=3 bus1=BVIRT_SG79E2017 bus2=PA_D_6G79E2017 length=0.03 units=km linecode=CCN_95
New line.EL_228788798 phases=3 bus1=PA_D_6G79E2017 bus2=PA_D_FG79E2044 length=0.26 units=km linecode=CCN_95
New line.EL_212770 phases=3 bus1=PA_D_FG79E2044 bus2=PA_D_FG79E2095 length=0.5 units=km linecode=CCN_95
New line.EL_197949358 phases=3 bus1=PA_D_FG79E2044 bus2=BVIRT_FG79E2044 length=0.01 units=km linecode=CCN_25
New line.EL_212780 phases=3 bus1=PA_D_FG79E2095 bus2=PA_D_G79E2148 length=0.53 units=km linecode=CCN_95
New line.EL_197949443 phases=3 bus1=PA_D_FG79E2095 bus2=BVIRT_FG79E2095 length=0.01 units=km linecode=CCN_25
New line.D_G79E2148|D_FG79E22 phases=3 bus1=PA_D_G79E2148 bus2=PA_D_FG79E2228 length=0.74 units=km linecode=CCN_95
New line.EL_215358 phases=3 bus1=PA_D_FG79E2228 bus2=BVIRT_FG79E2228 length=0.01 units=km linecode=CCN_25
New line.D_FG79E2228|D_FR02E2 phases=3 bus1=PA_D_FG79E2228 bus2=PA_D_FR02E2688 length=1.42 units=km linecode=CCN_95
New line.02E2698|D_FR02E2688 phases=3 bus1=PA_D_FR02E2688 bus2=CD_02E2698 length=0.74 units=km linecode=CCN_95
New line.EL_44185293 phases=3 bus1=PA_D_FR02E2688 bus2=BVIRT_FR02E2688 length=0.01 units=km linecode=CCN_25
New line.02E2698|D_R02E2718 phases=3 bus1=CD_02E2698 bus2=PA_D_R02E2718 length=0.32 units=km linecode=CCN_95
New line.EL_213690 phases=3 bus1=DMUM_FG79E2095 bus2=CD_81E1935 length=0.4 units=km linecode=CCN_25
New line.D_U53E1900|53E2097 phases=3 bus1=PA_D_U53E1900 bus2=CD_53E2097 length=1.12 units=km linecode=CCN_35
New line.FG79E2228|D_U53E1900 phases=3 bus1=DMUM_FG79E2228 bus2=PA_D_U53E1900 length=0.39 units=km linecode=CCN_25
New line.D_R02E2718|SP15E1006 phases=3 bus1=BVIRT_D_R02E2718 bus2=BVIRT_SP15E1006 length=0.18 units=km linecode=CCN_95
New line.EL_212808 phases=3 bus1=DMUM_FR02E2688 bus2=CD_02E2596 length=1.19 units=km linecode=CCN_25
New line.EL_197949352 phases=3 bus1=DMUM_FG79E2044 bus2=CD_79E2044 length=0.1 units=km linecode=CCN_25
New line.SP15E1006|15E0943 phases=3 bus1=DMUM_SP15E1006 bus2=CD_15E0943 length=0.62 units=km linecode=CCN_95
New line.E_-2692120|15E0943 phases=3 bus1=CD_15E0943 bus2=PA_E_-2692120 length=2.17 units=km linecode=CCN_95
New line.D_P15E0699|E_-269212 phases=3 bus1=PA_E_-2692120 bus2=PA_D_P15E0699 length=0.35 units=km linecode=CCN_95
New line.EL_192338473 phases=3 bus1=PA_D_P15E0699 bus2=PA_D_P15E0568 length=1.57 units=km linecode=CCN_95
New line.EL_192338475 phases=3 bus1=PA_D_P15E0568 bus2=DMUM_SP15E0539 length=0.46 units=km linecode=CCN_95
New line.EL_206730392 phases=3 bus1=PA_D_4P15E0495 bus2=DMUM_4P15E0495 length=0.02 units=km linecode=CCN_95
New line.EL_206730349 phases=3 bus1=PA_D_4P15E0495 bus2=DMUM_6P15E0495 length=0.03 units=km linecode=CCN_95
New line.EL_192338477 phases=3 bus1=BVIRT_SP15E0539 bus2=PA_D_4P15E0495 length=0.43 units=km linecode=CCN_95
New line.EL_206730398 phases=3 bus1=BVIRT_4P15E0495 bus2=DMUM_RP15E0495 length=0.04 units=km linecode=CCN_95
New line.EL_206730410 phases=3 bus1=BVIRT_RP15E0495 bus2=BVIRT_5P15E0495 length=0.04 units=km linecode=CCN_95
New line.EL_206730371 phases=3 bus1=PA_D_5P15E0495 bus2=BVIRT_6P15E0495 length=0.02 units=km linecode=CCN_95
New line.EL_206730360 phases=3 bus1=PA_D_5P15E0495 bus2=CD_15E0445 length=0.38 units=km linecode=CCN_95
New line.EL_206730404 phases=3 bus1=DMUM_5P15E0495 bus2=PA_D_5P15E0495 length=0.01 units=km linecode=CCN_95
New line.EL_192338432 phases=3 bus1=CD_15E0445 bus2=PA_E_-3246781 length=2.45 units=km linecode=CCN_95
New line.EL_181705480 phases=3 bus1=PA_E_-3246781 bus2=PA_D_FT77E2690 length=0.52 units=km linecode=SPC_185
New line.EL_202951637 phases=3 bus1=PA_D_FT77E2690 bus2=DMUM_FT77E2690 length=0.01 units=km linecode=CALX_50
New line.EL_181705429 phases=3 bus1=PA_D_FT77E2690 bus2=PA_D_T77E2682 length=0.12 units=km linecode=SPC_185
New line.EL_202951697 phases=3 bus1=PA_D_T77E2682 bus2=BVIRT_SU91E5655 length=0.1 units=km linecode=SPC_185
New line.EL_220497583 phases=3 bus1=PA_D_FF96E0027 bus2=DMUM_FF96E0027 length=0.18 units=km linecode=CCN_25
New line.EL_220497572 phases=3 bus1=PA_D_FF96E0027 bus2=PA_E_-3253977 length=0.98 units=km linecode=SPC_185
New line.EL_220497528 phases=3 bus1=PA_D_D_FF96E0027 bus2=PA_D_FF96E0027 length=0.8 units=km linecode=SPC_185
New line.EL_182890428 phases=3 bus1=PA_E_-3253977 bus2=PA_E_-3253981 length=0.74 units=km linecode=SPC_185
New line.EL_181705447 phases=3 bus1=PA_D_D_FF96E0027 bus2=DMUM_SU91E5547 length=0.69 units=km linecode=SPC_240
New line.EL_182890446 phases=3 bus1=DMUM_SU91E5655 bus2=PA_D_D_FF96E0027 length=0.01 units=km linecode=SPC_240
New line.EL_213846 phases=3 bus1=PA_E_-3253981 bus2=DMUM_SF90E0857 length=0.01 units=km linecode=SPC_240
New line.EL_182890440 phases=3 bus1=PA_E_-3253981 bus2=PA_E_-3254039 length=0.47 units=km linecode=SPC_240
New line.E_-3254039|E_-325404 phases=3 bus1=PA_E_-3254039 bus2=PA_E_-3254043 length=0.87 units=km linecode=SPC_240
New line.E_-3254043|E_-325404 phases=3 bus1=PA_E_-3254043 bus2=PA_E_-3254047 length=1.01 units=km linecode=SPC_240
New line.E_-3254047|E_-325404 phases=3 bus1=PA_E_-3254047 bus2=PA_E_-3254049 length=0.32 units=km linecode=SPC_240
New line.E_-3254049|E_-325405 phases=3 bus1=PA_E_-3254049 bus2=PA_E_-3254053 length=2.3 units=km linecode=SPC_240
New line.E_-3254053|E_-325405 phases=3 bus1=PA_E_-3254053 bus2=PA_E_-3254055 length=2.11 units=km linecode=SPC_240
New line.E_-3254055|E_-325405 phases=3 bus1=PA_E_-3254055 bus2=PA_E_-3254057 length=1.52 units=km linecode=SPC_240
New line.E_-3254057|E_-325406 phases=3 bus1=PA_E_-3254057 bus2=PA_E_-3254061 length=0.77 units=km linecode=SPC_240
New line.EL_182890386 phases=3 bus1=PA_E_-3254061 bus2=PA_D_SF90E1825 length=0.65 units=km linecode=SPC_240
New line.EL_182890368 phases=3 bus1=PA_D_SF90E1825 bus2=DMUM_SF90E1825 length=0.01 units=km linecode=SPC_240
New line.EL_182890498 phases=3 bus1=PA_D_SF90E1825 bus2=PA_E_-3254065 length=0.3 units=km linecode=SPC_240
New line.EL_182890380 phases=3 bus1=PA_E_-3254065 bus2=PA_D_F90E2020 length=1.7 units=km linecode=SPC_240
New line.EL_193926309 phases=3 bus1=PA_D_F90E2020 bus2=DMUM_SF90E2180 length=0.58 units=km linecode=CCN_95
New line.77E2690|FT77E2690 phases=3 bus1=BVIRT_FT77E2690 bus2=CD_77E2690 length=0.22 units=km linecode=CALX_50
New line.EL_210779958 phases=3 bus1=BVIRT_SF90E0857 bus2=BVIRT_SF94E0038 length=0.05 units=km linecode=CCN_95
New line.EL_48788570 phases=3 bus1=PA_D_FF90E2345 bus2=BVIRT_FF90E2345 length=0.01 units=km linecode=CCN_25
New line.EL_193926263 phases=3 bus1=PA_D_FF90E2345 bus2=PA_D_F90E2375 length=0.23 units=km linecode=CCN_95
New line.EL_193926351 phases=3 bus1=CD_90E2215 bus2=PA_D_FF90E2345 length=1.62 units=km linecode=CCN_95
New line.EL_193926255 phases=3 bus1=PA_D_F90E2375 bus2=DMUM_SF90E2429 length=0.11 units=km linecode=CCN_95
New line.EL_193926369 phases=3 bus1=BVIRT_SF90E2180 bus2=CD_90E2215 length=0.54 units=km linecode=CCN_95
New line.EL_182890374 phases=3 bus1=BVIRT_SF90E1825 bus2=PA_D_SI94E1517 length=0.22 units=km linecode=CCN_95
New line.EL_627450 phases=3 bus1=PA_D_SI94E1517 bus2=DMUM_SI94E1517 length=0.18 units=km linecode=CCN_95
New line.EL_182890523 phases=3 bus1=PA_D_SI94E1517 bus2=DMUM_SF90E1910 length=0.4 units=km linecode=CCN_95
New line.EL_220497621 phases=3 bus1=BVIRT_FF96E0027 bus2=CD_96E1710 length=1.49 units=km linecode=CCN_25
New line.EL_210779946 phases=3 bus1=DMUM_SF94E0038 bus2=DMUM_FF94E0021 length=0.18 units=km linecode=CCN_25
New line.EL_48788528 phases=3 bus1=DMUM_FF90E2345 bus2=CD_37L1056 length=0.39 units=km linecode=CCN_25
New line.EL_193926015 phases=3 bus1=PA_E_-3234330 bus2=PA_E_-3234329 length=0.78 units=km linecode=CCN_95
New line.EL_213050 phases=3 bus1=PA_E_-3234329 bus2=PA_D_F90E2710 length=1.73 units=km linecode=CCN_95
New line.EL_193926276 phases=3 bus1=BVIRT_SF90E2429 bus2=PA_E_-3234330 length=0.88 units=km linecode=CCN_95
New line.EL_213070 phases=3 bus1=PA_D_F90E2710 bus2=PA_E_-3234315 length=0.63 units=km linecode=CCN_95
New line.EL_193925973 phases=3 bus1=PA_E_-3234315 bus2=PA_D_6F90E2883 length=0.37 units=km linecode=CCN_95
New line.EL_226819166 phases=3 bus1=PA_D_6F90E2883 bus2=DMUM_SF90E2883 length=0.06 units=km linecode=CCN_95
New line.EL_226819192 phases=3 bus1=PA_D_6F90E2883 bus2=DMUM_6F90E2883 length=0.03 units=km linecode=CCN_95
New line.EL_195179574 phases=3 bus1=PA_D_4I94E1456 bus2=DMUM_4I94E1456 length=0.01 units=km linecode=CCN_25
New line.EL_195179572 phases=3 bus1=PA_D_4I94E1456 bus2=BVIRT_6I94E1456 length=0.02 units=km linecode=CCN_25
New line.EL_30856738 phases=3 bus1=CD_94E1477 bus2=PA_D_4I94E1456 length=0.19 units=km linecode=CCN_25
New line.EL_627462 phases=3 bus1=BVIRT_SI94E1517 bus2=CD_94E1477 length=0.36 units=km linecode=CCN_25
New line.EL_213874 phases=3 bus1=CD_94E0356 bus2=PA_D_F94E0405 length=0.44 units=km linecode=CCN_25
New line.EL_213880 phases=3 bus1=PA_D_F94E0405 bus2=CD_94E0545 length=1.37 units=km linecode=CCN_25
New line.EL_213852 phases=3 bus1=CD_94E0061 bus2=CD_94E0356 length=2.98 units=km linecode=CCN_25
New line.EL_213892 phases=3 bus1=CD_94E0545 bus2=PA_D_F94E0663 length=1.21 units=km linecode=CCN_25
New line.EL_223202470 phases=3 bus1=BVIRT_FF94E0021 bus2=CD_94E0061 length=0.39 units=km linecode=CCN_25
New line.EL_213902 phases=3 bus1=PA_D_F94E0663 bus2=PA_EL_2313373 length=0.11 units=km linecode=CCN_25
New line.EL_191647192 phases=3 bus1=PA_D_FF90E2948 bus2=PA_E_4394685 length=0.34 units=km linecode=SPC_185
New line.EL_193925960 phases=3 bus1=PA_E_4394685 bus2=PA_D_FF90E3141 length=1.6 units=km linecode=SPC_185
New line.EL_191647205 phases=3 bus1=PA_D_FF90E2948 bus2=DMUM_FF90E2948 length=0.01 units=km linecode=CCN_25
New line.EL_226819198 phases=3 bus1=PA_D_SF90E2883 bus2=PA_D_FF90E2948 length=1.07 units=km linecode=SPC_240
New line.EL_213094 phases=3 bus1=PA_D_FF90E3141 bus2=DMUM_FF90E3141 length=0.01 units=km linecode=CCN_25
New line.EL_164901430 phases=3 bus1=PA_D_FF90E3141 bus2=PA_E_4394706 length=0.95 units=km linecode=SPC_185
New line.EL_226819177 phases=3 bus1=BVIRT_SF90E2883 bus2=PA_D_SF90E2883 length=0.06 units=km linecode=SPC_240
New line.EL_226819204 phases=3 bus1=PA_D_SF90E2883 bus2=BVIRT_6F90E2883 length=0.03 units=km linecode=SPC_240
New line.EL_164901400 phases=3 bus1=PA_E_4394706 bus2=PA_E_-3227840 length=2.09 units=km linecode=SPC_185
New line.EL_213120 phases=3 bus1=PA_E_-3227840 bus2=PA_E_4394719 length=0.34 units=km linecode=SPC_185
New line.EL_164901466 phases=3 bus1=PA_E_4394719 bus2=PA_E_4394729 length=1.06 units=km linecode=SPC_185
New line.EL_193925663 phases=3 bus1=PA_E_4394729 bus2=PA_D_F90E3605 length=0.37 units=km linecode=SPC_185
New line.EL_192689456 phases=3 bus1=PA_D_F90E3605 bus2=DMUM_SF90E3857 length=2.44 units=km linecode=SPC_185
New line.EL_195179576 phases=3 bus1=BVIRT_4I94E1456 bus2=DMUM_SZ94E1456 length=0.03 units=km linecode=CCN_25
New line.EL_174083842 phases=3 bus1=PA_D_L78L1271 bus2=CD_78L1240 length=0.27 units=km linecode=CCN_95
New line.EL_174083831 phases=3 bus1=PA_D_L78L1280 bus2=PA_D_L78L1271 length=0.12 units=km linecode=CCN_95
New line.EL_174083996 phases=3 bus1=BVIRT_FF90E3141 bus2=PA_D_L78L1280 length=0.32 units=km linecode=CCN_25
New line.EL_191647306 phases=3 bus1=PA_D_X23L1275 bus2=PA_D_X23L1308 length=0.58 units=km linecode=CCN_25
New line.EL_191647295 phases=3 bus1=PA_D_X23L1230 bus2=PA_D_X23L1275 length=0.19 units=km linecode=CCN_25
New line.EL_191647317 phases=3 bus1=PA_D_X23L1308 bus2=PA_D_X23L1415 length=0.74 units=km linecode=CCN_25
New line.EL_191647284 phases=3 bus1=PA_D_X23L1037 bus2=PA_D_X23L1230 length=1.86 units=km linecode=CCN_25
New line.EL_191647213 phases=3 bus1=PA_D_X23L1415 bus2=CD_23L1530 length=1.05 units=km linecode=CCN_25
New line.EL_191647273 phases=3 bus1=BVIRT_FF90E2948 bus2=PA_D_X23L1037 length=0.42 units=km linecode=CCN_25
New line.EL_195851255 phases=3 bus1=BVIRT_SF90E3857 bus2=PA_D_RG_F90E3894 length=0.36 units=km linecode=CCN_95
New line.EL_197605878 phases=3 bus1=PA_D_RG_F90E3894 bus2=bar_5 length=0.01 units=km linecode=CCN_95
New line.REG3_1 phases=3 bus1=bar_5 bus2=bar_6 length=0.01 units=km linecode=CCN_95
New line.REG3_2 phases=3 bus1=bar_6 bus2=BVIRT_SF90E4103 length=2.02 units=km linecode=CCN_95
...
